 CRYSTAL
 PRIMVEC
     4.59308000    0.00000000    0.00000000
     0.00000000    4.59308000    0.00000000
     0.00000000    0.00000000    2.95889000
 PRIMCOORD
   6 1
    22   0.00000000    0.00000000    0.00000000
    22   2.29654000    2.29654000    1.47944500
     8   1.39978706    1.39978706    0.00000000
     8   3.69632706    0.89675294    1.47944500
     8   0.89675294    3.69632706    1.47944500
     8   3.19329294    3.19329294    0.00000000
